Version 4.1
SHEET 1 3976 1688
WIRE 2176 48 2176 32
WIRE 1072 112 928 112
WIRE 1200 112 1072 112
WIRE 1392 112 1392 64
WIRE 928 144 928 112
WIRE 1200 144 1200 112
WIRE 2176 160 2176 128
WIRE 2320 160 2176 160
WIRE 768 176 768 128
WIRE 2176 176 2176 160
WIRE 2448 176 2448 32
WIRE 1392 224 1392 192
WIRE 1472 224 1392 224
WIRE 1504 224 1472 224
WIRE 1648 224 1568 224
WIRE 1776 224 1728 224
WIRE 2320 224 2320 160
WIRE 2320 224 2240 224
WIRE 2384 224 2320 224
WIRE 1392 240 1392 224
WIRE 1200 288 1200 224
WIRE 1280 288 1200 288
WIRE 1328 288 1280 288
WIRE 2448 304 2448 272
WIRE 2448 304 2304 304
WIRE 1776 336 1776 224
WIRE 928 352 928 224
WIRE 1200 352 1200 288
WIRE 2176 352 2176 272
WIRE 2448 352 2448 304
WIRE 768 400 768 256
WIRE 832 400 768 400
WIRE 864 400 832 400
WIRE 1392 400 1392 336
WIRE 1392 400 1264 400
WIRE 1456 400 1392 400
WIRE 1520 400 1456 400
WIRE 2304 400 2304 304
WIRE 2304 400 2240 400
WIRE 2384 400 2304 400
WIRE 768 416 768 400
WIRE 1392 432 1392 400
WIRE 1520 432 1520 400
WIRE 32 480 32 448
WIRE 176 480 176 448
WIRE 2176 512 2176 448
WIRE 2448 512 2448 448
WIRE 928 528 928 448
WIRE 1072 528 928 528
WIRE 1200 528 1200 448
WIRE 1200 528 1072 528
WIRE 768 544 768 480
WIRE 1392 560 1392 496
WIRE 1520 560 1520 512
WIRE 1776 560 1776 416
FLAG 32 560 0
FLAG 32 448 Vcc
FLAG 1072 112 Vcc
FLAG 176 560 0
FLAG 176 448 Vee
FLAG 2176 32 Vcc
FLAG 2448 512 Vee
FLAG 2176 512 Vee
FLAG 1072 528 VE
FLAG 2448 32 VE
FLAG 1392 64 Vcc
FLAG 1520 560 0
FLAG 1392 560 0
FLAG 768 544 0
FLAG 768 128 Vcc
FLAG 1776 560 0
FLAG 1472 224 Vc
FLAG 1280 288 Vb
FLAG 1456 400 Vout
FLAG 832 400 Vz
SYMBOL voltage 32 464 R0
SYMATTR InstName V3
SYMATTR Value 12
SYMBOL npn 864 352 R0
SYMATTR InstName Q1
SYMATTR Value 2N2222A
SYMBOL npn 1264 352 M0
SYMATTR InstName Q2
SYMATTR Value 2N2222A
SYMBOL res 912 128 R0
WINDOW 0 40 24 Left 2
WINDOW 3 33 46 Left 2
SYMATTR InstName RC1
SYMATTR Value 4586
SYMATTR SpiceLine tol=5
SYMBOL res 1184 128 R0
WINDOW 0 -57 26 Left 2
WINDOW 3 -62 47 Left 2
SYMATTR InstName RC2
SYMATTR Value 4580
SYMATTR SpiceLine tol=5
SYMBOL voltage 176 464 R0
SYMATTR InstName V4
SYMATTR Value -12
SYMBOL npn 2384 176 R0
SYMATTR InstName Q5
SYMATTR Value 2N2222A
SYMBOL npn 2240 176 M0
SYMATTR InstName Q6
SYMATTR Value 2N2222A
SYMBOL npn 2240 352 M0
SYMATTR InstName Q7
SYMATTR Value 2N2222A
SYMBOL npn 2384 352 R0
SYMATTR InstName Q8
SYMATTR Value 2N2222A
SYMBOL res 2160 32 R0
SYMATTR InstName R_BIAS
SYMATTR Value 8.2k
SYMATTR SpiceLine tol=5
SYMBOL npn 1328 240 R0
SYMATTR InstName Q9
SYMATTR Value 2N4401
SYMBOL res 1376 96 R0
SYMATTR InstName R2
SYMATTR Value 100
SYMBOL cap 1568 208 R90
WINDOW 0 0 32 VBottom 2
WINDOW 3 32 32 VTop 2
SYMATTR InstName C1
SYMATTR Value 10µ
SYMBOL res 1744 208 R90
WINDOW 0 0 56 VBottom 2
WINDOW 3 32 56 VTop 2
SYMATTR InstName R_SIG
SYMATTR Value 50
SYMBOL voltage 1776 320 R0
WINDOW 123 0 0 Left 0
WINDOW 39 0 0 Left 0
SYMATTR InstName Vnoise
SYMATTR Value SINE(0 {amp} 10k)
SYMBOL cap 1376 432 R0
SYMATTR InstName C2
SYMATTR Value 100µ
SYMBOL res 1504 416 R0
SYMATTR InstName R_LOAD
SYMATTR Value {RL}
SYMBOL res 752 160 R0
SYMATTR InstName R1
SYMATTR Value 1k
SYMBOL zener 784 480 R180
WINDOW 0 24 64 Left 2
WINDOW 3 24 0 Left 2
SYMATTR InstName DZ
SYMATTR Value D1N5231
TEXT -24 -96 Left 2 !.MODEL 2N2222A NPN (IS=2.20f NF=1.00 BF=240 VAF=114 IKF=0.293 ISE=2.73p NE=2.00 BR=4.00 NR=1.00 VAR=24.0 IKR=0.600 RE=0.194 RB=0.777 RC=77.7m XTB=1.5 CJE=24.9p VJE=1.10 MJE=0.500 CJC=12.4p VJC=0.300 MJC=0.300 TF=371p TR=64.0n EG=1.12)
TEXT 16 120 Left 2 ;.ac dec 100 2k 10000k
TEXT 16 152 Left 2 !.step param amp 0.25 2.5 0.25
TEXT 16 184 Left 2 !.param RL=1k amp=0.5
TEXT 16 224 Left 2 ;.param {FIN} = 10
TEXT 16 256 Left 2 ;.op
TEXT 16 288 Left 2 !.tran 0 10m 9m
TEXT 936 32 Left 2 ;Differential Amplifier
TEXT 2232 -40 Left 2 ;Current Mirror
TEXT 1296 -8 Left 2 ;Voltage Regulator
TEXT -16 -280 Left 2 !.model D1N5231  D(Is=1.004f Rs=.5875 Ikf=0 N=1 Xti=3 Eg=1.11 Cjo=160p M=.5484\n+               Vj=.75 Fc=.5 Isr=1.8n Nr=2 Bv=5.1 Ibv=27.721m Nbv=1.1779\n+               Ibvl=1.1646m Nbvl=21.894 Tbv1=176.47u)\n*               Motorola        pid=1N5231      case=DO-35\n*               89-9-18-gjg\n*               Vz = 5.1 @ 20mA, Zz = 175 @ 1mA, Zz = 8.2 @ 5mA, Zz = 2.2 @ 20mA
TEXT 16 320 Left 2 !.meas TRAN Vc_result PP V(Vc) FROM 0 TO 1m
TEXT 16 352 Left 2 !.meas TRAN Vout_result PP V(Vout) FROM 0 TO 1m
