Version 4.1
SHEET 1 1448 932
WIRE 592 176 592 128
WIRE 64 224 64 192
WIRE 592 288 592 256
WIRE 672 288 592 288
WIRE 704 288 672 288
WIRE 816 288 768 288
WIRE 976 288 896 288
WIRE 592 320 592 288
WIRE 320 336 320 320
WIRE 64 352 64 304
WIRE 160 352 64 352
WIRE 288 352 160 352
WIRE 976 352 976 288
WIRE 496 368 352 368
WIRE 528 368 496 368
WIRE 288 384 240 384
WIRE 64 400 64 352
WIRE 320 416 320 400
WIRE 976 464 976 432
WIRE 64 512 64 464
WIRE 240 512 240 384
WIRE 416 512 240 512
WIRE 592 512 592 416
WIRE 592 512 416 512
WIRE 720 512 592 512
WIRE 592 544 592 512
WIRE 720 544 720 512
WIRE 592 640 592 608
WIRE 720 640 720 624
FLAG -416 304 0
FLAG -272 304 0
FLAG -416 224 Vcc
FLAG -272 224 Vee
FLAG 64 192 Vcc
FLAG 64 512 0
FLAG 592 640 0
FLAG 720 640 0
FLAG 976 464 0
FLAG 592 128 Vcc
FLAG 416 512 Vout
FLAG 160 352 Vz
FLAG 320 416 Vcc
FLAG 320 320 Vee
FLAG 672 288 Vc
FLAG 496 368 Vb
SYMBOL OpAmps\\opamp2 320 432 M180
SYMATTR InstName U1
SYMATTR Value LM741/NS
SYMBOL voltage -416 208 R0
SYMATTR InstName V1
SYMATTR Value 12
SYMBOL voltage -272 208 R0
SYMATTR InstName V2
SYMATTR Value -12
SYMBOL zener 80 464 R180
WINDOW 0 24 64 Left 2
WINDOW 3 24 0 Left 2
SYMATTR InstName Dz
SYMATTR Value D1N5231
SYMBOL res 48 208 R0
SYMATTR InstName R1
SYMATTR Value 1k
SYMBOL npn 528 320 R0
SYMATTR InstName Q10
SYMATTR Value 2N4401
SYMBOL res 576 160 R0
SYMATTR InstName R2
SYMATTR Value 100
SYMBOL cap 576 544 R0
SYMATTR InstName C1
SYMATTR Value 100µ
SYMBOL res 704 528 R0
SYMATTR InstName RL
SYMATTR Value {Rload}
SYMBOL cap 768 272 R90
WINDOW 0 0 32 VBottom 2
WINDOW 3 32 32 VTop 2
SYMATTR InstName C2
SYMATTR Value 10µ
SYMBOL res 912 272 R90
WINDOW 0 0 56 VBottom 2
WINDOW 3 32 56 VTop 2
SYMATTR InstName R3
SYMATTR Value 50
SYMBOL voltage 976 336 R0
WINDOW 123 24 124 Left 2
WINDOW 39 0 0 Left 0
SYMATTR Value2 AC 1
SYMATTR InstName Vnoise
SYMATTR Value SINE(0 {amp} 10k)
TEXT -440 -304 Left 2 !.lib nat_semi-model_lib.lib
TEXT -440 -256 Left 2 !.model D1N5231  D(Is=1.004f Rs=.5875 Ikf=0 N=1 Xti=3 Eg=1.11 Cjo=160p M=.5484\n+               Vj=.75 Fc=.5 Isr=1.8n Nr=2 Bv=5.1 Ibv=27.721m Nbv=1.1779\n+               Ibvl=1.1646m Nbvl=21.894 Tbv1=176.47u)\n*               Motorola        pid=1N5231      case=DO-35\n*               89-9-18-gjg\n*               Vz = 5.1 @ 20mA, Zz = 175 @ 1mA, Zz = 8.2 @ 5mA, Zz = 2.2 @ 20mA
TEXT -656 568 Left 2 !.step param amp 0.5 5 0.5
TEXT -600 496 Left 2 ;.op
TEXT -600 464 Left 2 !.tran 0 10m 9m
TEXT -600 432 Left 2 !.param amp=0.5 Rload=1k
TEXT -616 616 Left 2 !.meas TRAN Vc_result PP V(vc) FROM 0 TO 1m
TEXT -616 648 Left 2 !.meas TRAN Vout_result PP V(Vout) FROM 0 TO 25u
TEXT -440 528 Left 2 ;.ac
